<?xml version="1.0" encoding="UTF-8"?>

<!-- generated on Thu Nov 26 09:10:57 2015 by SUMO polyconvert Version 0.22.0
<?xml version="1.0" encoding="UTF-8"?>

<configuration xmlns:xsi="http://www.w3.org/2001/XMLSchema-instance" xsi:noNamespaceSchemaLocation="http://sumo.dlr.de/xsd/polyconvertConfiguration.xsd">

    <input>
        <net-file value="testqgis.net.xml"/>
        <osm-files value="testqgis.osm"/>
        <type-file value="typemap.xml"/>
    </input>

    <output>
        <output-file value="testqgis.poly.xml"/>
    </output>

</configuration>
-->

<additional xmlns:xsi="http://www.w3.org/2001/XMLSchema-instance" xsi:noNamespaceSchemaLocation="http://sumo.dlr.de/xsd/additional_file.xsd">
    <poly id="10061086" type="amenity" color="237,199,199" fill="1" layer="-1.00" shape="1473.02,1960.19 1420.54,1952.19 1421.33,1947.33 1419.54,1946.99 1423.74,1919.15 1425.90,1919.55 1426.73,1914.47 1481.59,1925.28 1473.02,1960.19"/>
    <poly id="10061086#1" type="building" color="255,230,230" fill="1" layer="-1.00" shape="1473.02,1960.19 1420.54,1952.19 1421.33,1947.33 1419.54,1946.99 1423.74,1919.15 1425.90,1919.55 1426.73,1914.47 1481.59,1925.28 1473.02,1960.19"/>
    <poly id="10063012" type="amenity" color="237,199,199" fill="1" layer="-1.00" shape="1389.69,1905.00 1387.56,1917.09 1386.54,1916.96 1386.36,1917.96 1384.97,1917.75 1385.14,1916.71 1380.20,1915.96 1380.05,1916.88 1378.77,1916.72 1378.95,1915.68 1374.41,1914.90 1374.61,1913.87 1355.08,1910.39 1354.37,1914.68 1348.71,1913.98 1348.48,1914.81 1347.60,1914.15 1346.82,1913.53 1344.78,1913.05 1345.56,1909.10 1305.97,1902.72 1305.34,1906.28 1294.49,1904.65 1293.85,1909.17 1293.31,1913.16 1292.74,1917.08 1292.30,1920.12 1302.85,1921.79 1302.27,1925.67 1341.76,1932.12 1342.34,1927.81 1343.62,1927.91 1344.35,1927.90 1345.16,1927.73 1346.34,1927.36 1346.26,1928.22 1351.93,1929.27 1351.22,1933.47 1370.83,1936.45 1370.95,1935.41 1375.40,1936.05 1375.59,1934.99 1376.90,1935.20 1376.73,1936.20 1381.70,1936.91 1381.86,1935.99 1383.14,1936.16 1382.96,1937.17 1383.93,1937.32 1382.04,1949.37 1381.91,1949.36 1373.47,1948.13 1368.90,1947.46 1368.96,1946.95 1300.55,1936.37 1300.48,1936.91 1284.42,1934.34 1284.37,1934.86 1267.68,1932.21 1269.37,1921.94 1269.75,1922.02 1271.21,1913.03 1270.72,1912.95 1270.86,1911.89 1270.46,1911.76 1270.94,1908.80 1271.42,1905.82 1271.92,1905.92 1272.08,1904.75 1272.51,1904.81 1274.01,1896.03 1273.45,1895.90 1275.03,1885.20 1291.76,1887.99 1291.68,1888.43 1307.89,1891.23 1307.85,1891.62 1376.41,1903.16 1376.42,1902.61 1389.69,1905.00"/>
    <poly id="10063012#1" type="building" color="255,230,230" fill="1" layer="-1.00" shape="1389.69,1905.00 1387.56,1917.09 1386.54,1916.96 1386.36,1917.96 1384.97,1917.75 1385.14,1916.71 1380.20,1915.96 1380.05,1916.88 1378.77,1916.72 1378.95,1915.68 1374.41,1914.90 1374.61,1913.87 1355.08,1910.39 1354.37,1914.68 1348.71,1913.98 1348.48,1914.81 1347.60,1914.15 1346.82,1913.53 1344.78,1913.05 1345.56,1909.10 1305.97,1902.72 1305.34,1906.28 1294.49,1904.65 1293.85,1909.17 1293.31,1913.16 1292.74,1917.08 1292.30,1920.12 1302.85,1921.79 1302.27,1925.67 1341.76,1932.12 1342.34,1927.81 1343.62,1927.91 1344.35,1927.90 1345.16,1927.73 1346.34,1927.36 1346.26,1928.22 1351.93,1929.27 1351.22,1933.47 1370.83,1936.45 1370.95,1935.41 1375.40,1936.05 1375.59,1934.99 1376.90,1935.20 1376.73,1936.20 1381.70,1936.91 1381.86,1935.99 1383.14,1936.16 1382.96,1937.17 1383.93,1937.32 1382.04,1949.37 1381.91,1949.36 1373.47,1948.13 1368.90,1947.46 1368.96,1946.95 1300.55,1936.37 1300.48,1936.91 1284.42,1934.34 1284.37,1934.86 1267.68,1932.21 1269.37,1921.94 1269.75,1922.02 1271.21,1913.03 1270.72,1912.95 1270.86,1911.89 1270.46,1911.76 1270.94,1908.80 1271.42,1905.82 1271.92,1905.92 1272.08,1904.75 1272.51,1904.81 1274.01,1896.03 1273.45,1895.90 1275.03,1885.20 1291.76,1887.99 1291.68,1888.43 1307.89,1891.23 1307.85,1891.62 1376.41,1903.16 1376.42,1902.61 1389.69,1905.00"/>
    <poly id="101158694" type="parking" color="184,184,179" fill="1" layer="-1.00" shape="902.53,1607.65 889.22,1605.16 891.36,1575.37 898.12,1564.82 901.72,1552.95 902.33,1538.25 905.95,1449.46 921.11,1449.53 917.58,1496.50 912.61,1548.84 902.53,1607.65"/>
    <poly id="101158695" type="parking" color="184,184,179" fill="1" layer="-1.00" shape="893.36,1250.45 891.20,1250.76 890.64,1247.87 862.65,1254.44 863.46,1256.86 870.29,1277.17 884.85,1308.56 890.56,1325.29 906.50,1403.62 917.78,1403.27 916.17,1380.86 913.34,1358.29 908.01,1316.87 893.36,1250.45"/>
    <poly id="101158697" type="parking" color="184,184,179" fill="1" layer="-1.00" shape="857.37,1234.67 858.39,1243.02 859.12,1245.71 865.19,1248.24 884.67,1243.32 886.36,1242.88 886.20,1241.84 889.46,1241.07 888.68,1237.91 890.46,1237.51 883.33,1207.05 878.23,1190.17 873.41,1176.61 867.96,1162.08 852.08,1123.47 837.09,1127.46 852.24,1196.20 857.37,1234.67"/>
    <poly id="101494638" type="building" color="255,230,230" fill="1" layer="-1.00" shape="1136.05,2766.11 1137.21,2769.07 1134.42,2774.60 1119.14,2779.36 1118.02,2767.44 1117.00,2757.41 1125.68,2755.39 1131.57,2753.95 1134.73,2762.97 1136.05,2766.11"/>
    <poly id="101494639" type="building" color="255,230,230" fill="1" layer="-1.00" shape="1167.28,2827.60 1167.41,2827.82 1163.25,2830.17 1160.56,2825.33 1164.81,2823.09 1167.28,2827.60"/>
    <poly id="101494640" type="building" color="255,230,230" fill="1" layer="-1.00" shape="1142.77,2810.92 1141.80,2808.89 1144.08,2807.72 1146.05,2806.66 1147.39,2809.24 1144.32,2810.95 1142.77,2810.92"/>
    <poly id="101494645" type="building" color="255,230,230" fill="1" layer="-1.00" shape="1125.99,2724.83 1130.64,2719.04 1130.34,2715.03 1131.59,2714.95 1133.29,2715.55 1141.75,2716.30 1144.41,2715.58 1144.85,2716.48 1147.91,2722.33 1150.13,2727.05 1138.90,2735.24 1132.72,2730.21 1125.99,2724.83"/>
    <poly id="101494646" type="building" color="255,230,230" fill="1" layer="-1.00" shape="1037.89,2801.62 1037.62,2796.50 1048.76,2795.87 1057.64,2795.29 1057.64,2795.07 1057.51,2794.18 1058.76,2794.09 1058.88,2795.32 1066.67,2794.83 1067.02,2799.95 1037.89,2801.62"/>
    <poly id="101494647" type="building" color="255,230,230" fill="1" layer="-1.00" shape="1147.67,2824.48 1145.95,2821.55 1148.23,2820.38 1149.35,2822.29 1149.87,2823.42 1147.67,2824.48"/>
    <poly id="101494648" type="building" color="255,230,230" fill="1" layer="-1.00" shape="1149.35,2811.96 1156.20,2808.45 1159.48,2814.75 1152.55,2818.25 1149.35,2811.96"/>
    <poly id="101494650" type="building" color="255,230,230" fill="1" layer="-1.00" shape="983.01,2711.99 989.57,2703.92 1000.65,2712.73 1000.71,2713.29 996.77,2718.98 995.00,2721.60 983.01,2711.99"/>
    <poly id="101494651" type="building" color="255,230,230" fill="1" layer="-1.00" shape="1161.37,2776.44 1161.23,2775.88 1170.58,2771.65 1175.02,2781.64 1165.74,2786.10 1168.92,2793.40 1159.41,2797.51 1152.01,2780.78 1161.37,2776.44"/>
    <poly id="101494652" type="building" color="255,230,230" fill="1" layer="-1.00" shape="1022.88,2757.48 1023.66,2760.83 1011.13,2761.21 1003.19,2761.36 1003.03,2758.14 1022.88,2757.48"/>
    <poly id="101494654" type="building" color="255,230,230" fill="1" layer="-1.00" shape="994.55,2680.13 1010.50,2682.33 1015.80,2683.06 1013.84,2697.02 993.45,2694.11 994.55,2680.13"/>
    <poly id="101494656" type="building" color="255,230,230" fill="1" layer="-1.00" shape="1243.61,2806.23 1235.92,2792.16 1244.98,2786.81 1245.43,2787.70 1252.82,2801.21 1247.97,2803.86 1243.61,2806.23"/>
    <poly id="101494657" type="building" color="255,230,230" fill="1" layer="-1.00" shape="985.08,2692.81 987.05,2695.19 983.77,2699.23 981.93,2701.41 980.48,2700.26 971.78,2692.95 972.73,2692.19 980.67,2698.71 985.08,2692.81"/>
    <poly id="101494659" type="amenity" color="237,199,199" fill="1" layer="-1.00" shape="1288.67,2764.35 1289.10,2769.25 1284.62,2771.49 1280.96,2768.29 1248.63,2739.98 1251.02,2737.37 1255.97,2741.93 1266.34,2730.72 1264.74,2729.34 1262.66,2731.63 1253.07,2722.74 1257.94,2717.18 1260.38,2719.35 1262.29,2717.17 1270.90,2718.37 1271.74,2719.06 1272.14,2718.51 1285.94,2730.61 1282.59,2734.31 1280.84,2736.27 1283.28,2738.33 1285.41,2740.27 1286.66,2740.07 1286.96,2743.97 1286.34,2743.96 1286.97,2750.53 1283.85,2750.79 1281.79,2749.08 1281.36,2743.95 1277.93,2744.21 1272.66,2750.20 1282.04,2758.42 1288.12,2757.89 1288.67,2764.35"/>
    <poly id="101494659#1" type="building" color="255,230,230" fill="1" layer="-1.00" shape="1288.67,2764.35 1289.10,2769.25 1284.62,2771.49 1280.96,2768.29 1248.63,2739.98 1251.02,2737.37 1255.97,2741.93 1266.34,2730.72 1264.74,2729.34 1262.66,2731.63 1253.07,2722.74 1257.94,2717.18 1260.38,2719.35 1262.29,2717.17 1270.90,2718.37 1271.74,2719.06 1272.14,2718.51 1285.94,2730.61 1282.59,2734.31 1280.84,2736.27 1283.28,2738.33 1285.41,2740.27 1286.66,2740.07 1286.96,2743.97 1286.34,2743.96 1286.97,2750.53 1283.85,2750.79 1281.79,2749.08 1281.36,2743.95 1277.93,2744.21 1272.66,2750.20 1282.04,2758.42 1288.12,2757.89 1288.67,2764.35"/>
    <poly id="101494660" type="building" color="255,230,230" fill="1" layer="-1.00" shape="1015.94,2785.22 1015.22,2769.53 1025.33,2769.21 1026.14,2784.90 1015.94,2785.22"/>
    <poly id="101494663" type="building" color="255,230,230" fill="1" layer="-1.00" shape="1071.80,2811.96 1071.71,2806.06 1071.52,2787.16 1073.93,2787.11 1086.93,2786.63 1087.04,2798.65 1087.16,2810.64 1072.27,2811.86 1071.80,2811.96"/>
    <poly id="101494665" type="building" color="255,230,230" fill="1" layer="-1.00" shape="1010.16,2738.96 1010.11,2737.62 1010.30,2736.07 1011.08,2736.20 1017.97,2737.47 1020.46,2747.75 1012.21,2748.12 1011.79,2739.22 1010.16,2738.96"/>
    <poly id="101494666" type="building" color="255,230,230" fill="1" layer="-1.00" shape="1024.97,2703.73 1025.54,2705.85 1019.83,2707.17 1020.20,2704.73 1020.67,2704.63 1024.97,2703.73"/>
    <poly id="101494668" type="building" color="255,230,230" fill="1" layer="-1.00" shape="1073.93,2787.11 1073.84,2780.66 1072.91,2780.64 1069.64,2780.78 1069.61,2778.78 1078.40,2778.65 1086.80,2778.51 1086.87,2782.57 1086.93,2786.63 1073.93,2787.11"/>
    <poly id="101494671" type="building" color="255,230,230" fill="1" layer="-1.00" shape="1008.14,2728.46 1009.16,2725.04 1015.83,2728.97 1017.97,2737.47 1011.08,2736.20 1012.52,2730.79 1008.14,2728.46"/>
    <poly id="101494672" type="building" color="255,230,230" fill="1" layer="-1.00" shape="1252.82,2801.21 1245.43,2787.70 1254.49,2782.58 1254.79,2783.14 1258.30,2789.45 1262.04,2796.20 1257.47,2798.69 1252.82,2801.21"/>
    <poly id="101494673" type="building" color="255,230,230" fill="1" layer="-1.00" shape="1009.85,2826.99 1008.22,2826.84 1009.85,2826.99"/>
    <poly id="101494674" type="building" color="255,230,230" fill="1" layer="-1.00" shape="1043.27,2713.15 1045.46,2722.76 1030.92,2725.76 1029.92,2721.85 1028.84,2718.04 1035.80,2716.31 1035.52,2714.97 1043.27,2713.15"/>
    <poly id="101494681" type="building" color="255,230,230" fill="0" layer="-1.00" shape="1077.30,2823.42 1087.34,2822.87 1087.40,2828.11"/>
    <poly id="101494683" type="building" color="255,230,230" fill="1" layer="-1.00" shape="928.99,2808.46 923.93,2805.57 929.13,2795.79 930.51,2793.27 933.35,2788.00 941.18,2792.51 936.31,2801.52 936.62,2801.63 933.05,2808.00 928.99,2808.46"/>
    <poly id="101494684" type="building" color="255,230,230" fill="1" layer="-1.00" shape="1003.02,2812.83 1002.93,2810.05 1009.24,2809.75 1009.46,2813.75 1003.87,2812.96 1003.02,2812.83"/>
    <poly id="101494685" type="building" color="255,230,230" fill="1" layer="-1.00" shape="985.08,2692.81 980.67,2698.71 972.73,2692.19 976.31,2689.12 979.71,2686.24 985.08,2692.81"/>
    <poly id="101494688" type="building" color="255,230,230" fill="1" layer="-1.00" shape="971.38,2805.43 972.80,2800.91 973.58,2801.15 979.38,2802.39 978.04,2806.81 977.95,2807.14 971.38,2805.43"/>
    <poly id="101494689" type="building" color="255,230,230" fill="1" layer="-1.00" shape="1266.33,2781.85 1258.53,2786.12 1256.44,2782.29 1254.79,2783.14 1254.49,2782.58 1253.38,2780.33 1251.88,2777.63 1250.69,2775.49 1255.81,2772.71 1266.33,2781.85"/>
    <poly id="101494691" type="building" color="255,230,230" fill="1" layer="-1.00" shape="1123.02,2712.09 1123.34,2698.09 1123.66,2697.87 1136.38,2699.65 1146.37,2701.06 1145.05,2711.15 1134.97,2710.03 1129.80,2711.58 1123.02,2712.09"/>
    <poly id="101494692" type="building" color="255,230,230" fill="1" layer="-1.00" shape="1034.79,2747.08 1036.04,2746.78 1036.82,2746.46 1038.21,2750.61 1035.94,2751.11 1034.79,2747.08"/>
    <poly id="101494694" type="building" color="255,230,230" fill="1" layer="-1.00" shape="1125.12,2749.37 1124.93,2747.48 1126.63,2737.96 1131.59,2748.97 1131.42,2749.63 1130.16,2750.05 1125.12,2749.37"/>
    <poly id="101494695" type="building" color="255,230,230" fill="1" layer="-1.00" shape="1008.11,2797.83 1008.08,2792.16 1016.26,2791.90 1016.52,2797.46 1016.05,2797.45 1013.48,2797.62 1008.11,2797.83"/>
    <poly id="101494696" type="building" color="255,230,230" fill="1" layer="-1.00" shape="1006.46,2734.20 1005.70,2736.63 1000.83,2735.52 1001.01,2734.41 994.11,2733.25 997.15,2722.76 1009.16,2725.04 1008.14,2728.46 1006.46,2734.20"/>
    <poly id="101494697" type="building" color="255,230,230" fill="1" layer="-1.00" shape="1122.70,2729.31 1122.78,2725.81 1122.87,2722.20 1125.99,2724.83 1132.72,2730.21 1138.90,2735.24 1133.45,2739.12 1132.16,2737.42 1130.86,2736.39 1122.70,2729.31"/>
    <poly id="101494699" type="building" color="255,230,230" fill="1" layer="-1.00" shape="1004.39,2787.07 1004.24,2769.84 1015.22,2769.53 1015.94,2785.22 1016.06,2786.78 1007.82,2786.93 1004.39,2787.07"/>
    <poly id="101494700" type="building" color="255,230,230" fill="1" layer="-1.00" shape="1148.23,2820.38 1145.95,2821.55 1138.31,2825.38 1135.65,2819.50 1132.98,2813.58 1141.80,2808.89 1142.77,2810.92 1148.23,2820.38"/>
    <poly id="101494701" type="building" color="255,230,230" fill="1" layer="-1.00" shape="1065.46,2824.15 1065.36,2821.59 1066.09,2820.39 1070.14,2820.14 1071.51,2821.18 1071.61,2823.74 1065.46,2824.15"/>
    <poly id="101494702" type="building" color="255,230,230" fill="1" layer="-1.00" shape="1016.26,2791.90 1016.06,2786.78 1015.94,2785.22 1026.14,2784.90 1026.47,2790.80 1026.46,2791.47 1016.26,2791.90"/>
    <poly id="101494703" type="building" color="255,230,230" fill="1" layer="-1.00" shape="1071.61,2823.74 1071.51,2821.18 1071.22,2813.61 1072.39,2813.53 1072.27,2811.86 1087.16,2810.64 1087.25,2816.92 1087.34,2822.87 1077.30,2823.42 1071.61,2823.74"/>
    <poly id="101494706" type="building" color="255,230,230" fill="1" layer="-1.00" shape="1034.33,2739.85 1036.04,2746.78 1034.79,2747.08 1030.95,2747.99 1025.68,2726.86 1030.92,2725.76 1032.20,2731.01 1029.93,2731.63 1032.06,2740.35 1034.33,2739.85"/>
    <poly id="101494707" type="building" color="255,230,230" fill="1" layer="-1.00" shape="1020.20,2704.73 1019.83,2707.17 1012.62,2706.11 1012.91,2703.78 1020.20,2704.73"/>
    <poly id="101494709" type="building" color="255,230,230" fill="1" layer="-1.00" shape="1078.40,2778.65 1078.26,2767.86 1083.94,2767.66 1086.68,2770.50 1086.80,2778.51 1078.40,2778.65"/>
    <poly id="101494710" type="building" color="255,230,230" fill="1" layer="-1.00" shape="1137.04,2782.66 1130.84,2784.96 1121.66,2788.31 1120.40,2783.84 1119.14,2779.36 1134.42,2774.60 1137.04,2782.66"/>
    <poly id="101494713" type="building" color="255,230,230" fill="1" layer="-1.00" shape="1026.72,2797.03 1026.67,2795.69 1026.46,2791.47 1026.47,2790.80 1036.75,2790.26 1037.26,2795.16 1037.39,2796.61 1026.72,2797.03"/>
    <poly id="101494714" type="building" color="255,230,230" fill="1" layer="-1.00" shape="1286.97,2750.53 1287.01,2751.98 1285.45,2752.16 1283.85,2750.79 1286.97,2750.53"/>
    <poly id="101494715" type="building" color="255,230,230" fill="1" layer="-1.00" shape="1122.87,2722.20 1122.94,2717.19 1123.02,2712.09 1129.80,2711.58 1130.34,2715.03 1130.64,2719.04 1125.99,2724.83 1122.87,2722.20"/>
    <poly id="101494716" type="building" color="255,230,230" fill="1" layer="-1.00" shape="1283.28,2738.33 1280.84,2736.27 1282.59,2734.31 1282.90,2734.65 1283.52,2738.00 1283.28,2738.33"/>
    <poly id="101494719" type="building" color="255,230,230" fill="1" layer="-1.00" shape="988.57,2808.60 982.99,2807.81 985.59,2799.75 987.21,2800.24 990.84,2801.43 988.57,2808.60"/>
    <poly id="101494720" type="building" color="255,230,230" fill="1" layer="-1.00" shape="1218.96,2802.22 1215.08,2795.23 1218.94,2793.10 1222.45,2799.29 1222.90,2800.08 1218.96,2802.22"/>
    <poly id="101494723" type="building" color="255,230,230" fill="1" layer="-1.00" shape="1151.27,2830.34 1140.50,2830.25 1138.31,2825.38 1145.95,2821.55 1147.67,2824.48 1151.27,2830.34"/>
    <poly id="101494724" type="building" color="255,230,230" fill="1" layer="-1.00" shape="981.93,2701.41 983.77,2699.23 989.57,2703.92 983.01,2711.99 977.20,2707.30 981.93,2701.41"/>
    <poly id="101494726" type="building" color="255,230,230" fill="1" layer="-1.00" shape="1161.23,2775.88 1161.37,2776.44 1152.01,2780.78 1150.41,2776.62 1173.13,2765.59 1179.35,2779.52 1175.02,2781.64 1170.58,2771.65 1161.23,2775.88"/>
    <poly id="101494728" type="building" color="255,230,230" fill="1" layer="-1.00" shape="1235.92,2792.16 1232.41,2785.63 1241.55,2780.50 1242.75,2782.64 1244.98,2786.81 1235.92,2792.16"/>
    <poly id="101494729" type="building" color="255,230,230" fill="1" layer="-1.00" shape="967.50,2699.52 965.67,2698.14 971.78,2692.95 980.48,2700.26 981.93,2701.41 977.20,2707.30 967.50,2699.52"/>
    <poly id="101494731" type="building" color="255,230,230" fill="1" layer="-1.00" shape="1177.65,2833.06 1167.41,2827.82 1167.28,2827.60 1172.87,2824.50 1177.65,2833.06"/>
    <poly id="101494732" type="building" color="255,230,230" fill="1" layer="-1.00" shape="1149.35,2822.29 1148.23,2820.38 1151.93,2818.57 1152.89,2820.49 1149.35,2822.29"/>
    <poly id="101494734" type="building" color="255,230,230" fill="1" layer="-1.00" shape="1000.51,2705.39 1001.82,2705.53 1001.47,2707.52 999.38,2706.92 1000.51,2705.39"/>
    <poly id="101494735" type="building" color="255,230,230" fill="1" layer="-1.00" shape="1244.98,2786.81 1242.75,2782.64 1251.88,2777.63 1253.38,2780.33 1250.93,2781.94 1251.53,2783.06 1244.98,2786.81"/>
    <poly id="101494736" type="building" color="255,230,230" fill="1" layer="-1.00" shape="1131.57,2753.95 1125.68,2755.39 1125.43,2752.72 1131.07,2751.29 1131.57,2753.95"/>
    <poly id="101494741" type="building" color="255,230,230" fill="1" layer="-1.00" shape="1003.01,2745.57 1002.39,2745.45 1000.45,2745.18 990.99,2743.63 994.11,2733.25 1001.01,2734.41 1000.83,2735.52 1005.70,2736.63 1004.61,2740.05 1003.01,2745.57"/>
    <poly id="101494744" type="building" color="255,230,230" fill="0" layer="-1.00" shape="916.68,2819.74 941.94,2816.99"/>
    <poly id="101494746" type="building" color="255,230,230" fill="1" layer="-1.00" shape="1182.23,2823.16 1184.70,2823.99 1186.94,2828.16 1178.28,2832.74 1179.63,2832.03 1178.87,2830.64 1179.97,2830.11 1178.63,2827.52 1178.93,2824.86 1182.23,2823.16"/>
    <poly id="101494749" type="building" color="255,230,230" fill="1" layer="-1.00" shape="1146.05,2806.66 1144.08,2807.72 1141.55,2803.00 1143.74,2802.60 1146.05,2806.66"/>
    <poly id="101494750" type="building" color="255,230,230" fill="0" layer="-1.00" shape="1186.94,2828.16 1183.29,2821.18 1191.56,2816.82 1190.96,2815.69 1194.82,2813.67 1195.06,2813.45 1195.65,2814.69 1205.10,2809.57 1212.73,2822.97"/>
    <poly id="101494752" type="building" color="255,230,230" fill="1" layer="-1.00" shape="1010.47,2715.18 1011.32,2715.31 1014.65,2715.94 1015.27,2722.96 1010.32,2721.84 1009.33,2720.82 1010.47,2715.18"/>
    <poly id="101494753" type="building" color="255,230,230" fill="1" layer="-1.00" shape="1016.52,2797.46 1016.26,2791.90 1026.46,2791.47 1026.67,2795.69 1026.72,2797.03 1016.52,2797.46"/>
    <poly id="101494754" type="building" color="255,230,230" fill="1" layer="-1.00" shape="1037.39,2796.61 1037.26,2795.16 1036.75,2790.26 1041.19,2790.02 1042.59,2789.95 1048.51,2789.64 1048.71,2794.53 1048.76,2795.87 1037.62,2796.50 1037.39,2796.61"/>
    <poly id="101494755" type="building" color="255,230,230" fill="1" layer="-1.00" shape="979.71,2686.24 982.27,2684.04 987.96,2679.20 989.30,2679.29 994.55,2680.13 993.45,2694.11 991.81,2701.08 987.05,2695.19 985.08,2692.81 979.71,2686.24"/>
    <poly id="101494758" type="building" color="255,230,230" fill="1" layer="-1.00" shape="1144.08,2807.72 1141.80,2808.89 1139.28,2803.39 1141.55,2803.00 1144.08,2807.72"/>
    <poly id="101494761" type="amenity" color="237,199,199" fill="1" layer="-1.00" shape="1105.64,2781.61 1102.27,2782.31 1101.36,2777.95 1104.65,2777.25 1105.64,2781.61"/>
    <poly id="101494761#1" type="building" color="255,230,230" fill="1" layer="-1.00" shape="1105.64,2781.61 1102.27,2782.31 1101.36,2777.95 1104.65,2777.25 1105.64,2781.61"/>
    <poly id="101494766" type="building" color="255,230,230" fill="1" layer="-1.00" shape="1058.76,2824.66 1058.52,2817.99 1058.29,2814.54 1063.27,2814.21 1063.97,2824.34 1059.15,2824.45 1059.07,2824.56 1058.76,2824.66"/>
    <poly id="101494767" type="building" color="255,230,230" fill="1" layer="-1.00" shape="981.61,2793.44 976.26,2792.43 982.84,2770.35 994.04,2770.16 991.29,2781.66 991.52,2781.77 990.92,2784.31 989.88,2789.07 987.21,2800.24 985.59,2799.75 984.43,2799.39 980.65,2798.09 980.41,2798.08 981.61,2793.44"/>
    <poly id="101494771" type="building" color="255,230,230" fill="1" layer="-1.00" shape="1235.92,2792.16 1243.61,2806.23 1237.01,2809.81 1230.45,2813.37 1222.90,2800.08 1222.45,2799.29 1235.92,2792.16"/>
    <poly id="101494773" type="building" color="255,230,230" fill="1" layer="-1.00" shape="1125.68,2755.39 1117.00,2757.41 1117.32,2754.89 1118.15,2748.10 1119.30,2738.79 1122.68,2733.76 1126.81,2736.74 1126.63,2737.96 1124.93,2747.48 1125.12,2749.37 1125.43,2752.72 1125.68,2755.39"/>
    <poly id="101494776" type="building" color="255,230,230" fill="1" layer="-1.00" shape="1029.92,2721.85 1030.92,2725.76 1025.68,2726.86 1023.40,2717.70 1023.34,2717.25 1026.00,2716.31 1027.29,2721.23 1028.11,2722.81 1029.92,2721.85"/>
    <poly id="101494782" type="building" color="255,230,230" fill="1" layer="-1.00" shape="990.99,2743.63 1000.45,2745.18 1000.14,2748.51 1002.47,2748.45 1003.03,2758.14 986.45,2758.65 990.99,2743.63"/>
    <poly id="101494785" type="building" color="255,230,230" fill="1" layer="-1.00" shape="1141.80,2808.89 1132.98,2813.58 1131.14,2809.45 1127.83,2802.00 1125.73,2797.30 1134.47,2792.83 1139.28,2803.39 1141.80,2808.89"/>
    <poly id="101494786" type="building" color="255,230,230" fill="1" layer="-1.00" shape="993.45,2694.11 1013.84,2697.02 1013.58,2698.24 1012.91,2703.78 1012.62,2706.11 1011.32,2715.31 1010.47,2715.18 1000.71,2713.29 1000.65,2712.73 1001.47,2707.52 1001.82,2705.53 1000.51,2705.39 991.12,2704.06 991.73,2701.30 991.81,2701.08 993.45,2694.11"/>
    <poly id="101494788" type="building" color="255,230,230" fill="1" layer="-1.00" shape="1121.66,2788.31 1130.84,2784.96 1134.47,2792.83 1125.73,2797.30 1121.66,2788.31"/>
    <poly id="101494789" type="building" color="255,230,230" fill="0" layer="-1.00" shape="1151.27,2830.34 1152.68,2829.60 1160.56,2825.33 1163.25,2830.17"/>
    <poly id="101494793" type="building" color="255,230,230" fill="1" layer="-1.00" shape="1035.16,2713.63 1042.83,2711.81 1043.27,2713.15 1035.52,2714.97 1035.80,2716.31 1028.84,2718.04 1028.12,2715.36 1035.16,2713.63"/>
    <poly id="101494795" type="building" color="255,230,230" fill="1" layer="-1.00" shape="1151.83,2710.86 1155.85,2712.06 1155.48,2714.28 1151.47,2713.07 1151.83,2710.86"/>
    <poly id="101494797" type="building" color="255,230,230" fill="1" layer="-1.00" shape="1059.15,2786.88 1059.05,2784.88 1062.24,2784.73 1069.63,2784.56 1069.66,2786.79 1059.15,2786.88"/>
    <poly id="101494798" type="building" color="255,230,230" fill="1" layer="-1.00" shape="1146.37,2701.06 1153.60,2702.10 1162.19,2703.31 1160.35,2715.83 1155.48,2714.28 1155.85,2712.06 1151.83,2710.86 1149.59,2710.14 1149.15,2712.35 1145.29,2711.15 1145.05,2711.15 1146.37,2701.06"/>
    <poly id="101494799" type="building" color="255,230,230" fill="1" layer="-1.00" shape="1009.46,2813.75 1009.24,2809.75 1013.91,2809.41 1013.92,2809.07 1017.03,2808.92 1017.60,2814.94 1017.29,2814.93 1009.46,2813.75"/>
    <poly id="101494801" type="building" color="255,230,230" fill="1" layer="-1.00" shape="1026.14,2784.90 1025.33,2769.21 1035.76,2769.00 1036.49,2784.58 1026.14,2784.90"/>
    <poly id="101494804" type="building" color="255,230,230" fill="1" layer="-1.00" shape="996.77,2718.98 1000.71,2713.29 1010.47,2715.18 1009.33,2720.82 996.77,2718.98"/>
    <poly id="101494811" type="building" color="255,230,230" fill="1" layer="-1.00" shape="1195.65,2814.69 1195.06,2813.45 1194.82,2813.67 1192.13,2808.94 1191.68,2808.15 1201.29,2802.92 1205.10,2809.57 1195.65,2814.69"/>
    <poly id="101494812" type="building" color="255,230,230" fill="1" layer="-1.00" shape="1048.76,2795.87 1048.71,2794.53 1048.51,2789.64 1048.17,2784.29 1055.96,2783.80 1056.24,2784.92 1056.74,2786.93 1057.51,2794.18 1057.64,2795.07 1057.64,2795.29 1048.76,2795.87"/>
    <poly id="101494815" type="building" color="255,230,230" fill="1" layer="-1.00" shape="1052.03,2768.49 1058.88,2768.31 1059.05,2784.88 1059.15,2786.88 1056.74,2786.93 1056.24,2784.92 1055.96,2783.80 1052.03,2768.49"/>
    <poly id="101494819" type="building" color="255,230,230" fill="0" layer="-1.00" shape="1059.15,2824.45 1063.97,2824.34 1065.46,2824.15 1071.61,2823.74 1077.30,2823.42"/>
    <poly id="101494820" type="building" color="255,230,230" fill="1" layer="-1.00" shape="1022.75,2732.69 1021.62,2727.77 1025.68,2726.86 1030.95,2747.99 1031.67,2750.79 1030.57,2751.10 1029.51,2746.74 1028.57,2746.94 1027.28,2742.02 1024.78,2732.18 1022.75,2732.69"/>
    <poly id="101494821" type="building" color="255,230,230" fill="1" layer="-1.00" shape="973.58,2801.15 976.26,2792.43 981.61,2793.44 980.41,2798.08 980.65,2798.09 979.38,2802.39 973.58,2801.15"/>
    <poly id="101494822" type="building" color="255,230,230" fill="1" layer="-1.00" shape="991.29,2781.66 994.04,2770.16 1004.24,2769.84 1004.39,2787.07 1004.38,2787.51 999.02,2787.28 999.03,2786.95 998.25,2786.93 998.27,2785.82 999.13,2785.84 999.17,2783.84 999.22,2781.84 997.20,2781.57 997.01,2783.45 991.52,2781.77 991.29,2781.66"/>
    <poly id="101494829" type="building" color="255,230,230" fill="1" layer="-1.00" shape="1036.49,2784.58 1035.76,2769.00 1047.44,2768.60 1048.17,2784.29 1036.49,2784.58"/>
    <poly id="101494830" type="building" color="255,230,230" fill="1" layer="-1.00" shape="1045.46,2722.76 1047.89,2732.04 1033.41,2736.04 1032.20,2731.01 1030.92,2725.76 1045.46,2722.76"/>
    <poly id="101494832" type="building" color="255,230,230" fill="1" layer="-1.00" shape="1152.68,2829.60 1150.59,2825.77 1156.18,2822.78 1152.55,2818.25 1159.48,2814.75 1160.82,2814.11 1164.81,2823.09 1160.56,2825.33 1152.68,2829.60"/>
    <poly id="101494833" type="building" color="255,230,230" fill="0" layer="-1.00" shape="941.94,2816.99 958.47,2815.25 958.94,2815.15"/>
    <poly id="101494834" type="building" color="255,230,230" fill="1" layer="-1.00" shape="1042.83,2711.81 1035.16,2713.63 1032.89,2704.24 1040.16,2702.74 1042.83,2711.81"/>
    <poly id="101494835" type="building" color="255,230,230" fill="1" layer="-1.00" shape="1044.86,2813.45 1044.54,2806.66 1058.33,2806.09 1071.71,2806.06 1071.80,2811.96 1058.87,2812.88 1044.86,2813.45"/>
    <poly id="101494836" type="building" color="255,230,230" fill="1" layer="-1.00" shape="1069.61,2778.78 1069.46,2768.11 1073.87,2767.99 1078.26,2767.86 1078.40,2778.65 1069.61,2778.78"/>
    <poly id="101494838" type="building" color="255,230,230" fill="1" layer="-1.00" shape="1058.02,2829.65 1055.76,2829.82 1056.41,2825.39 1057.89,2825.31 1058.02,2829.65"/>
    <poly id="101494840" type="building" color="255,230,230" fill="1" layer="-1.00" shape="1014.65,2715.94 1018.99,2716.82 1021.62,2727.77 1015.83,2728.97 1015.76,2728.64 1015.27,2722.96 1014.65,2715.94"/>
    <poly id="101494841" type="building" color="255,230,230" fill="1" layer="-1.00" shape="997.83,2798.37 998.25,2786.93 999.03,2786.95 999.02,2787.28 1004.38,2787.51 1004.42,2788.96 1007.85,2788.93 1008.08,2792.16 1008.11,2797.83 997.83,2798.37"/>
    <poly id="101494843" type="building" color="255,230,230" fill="1" layer="-1.00" shape="1032.38,2753.58 1034.09,2760.52 1023.66,2760.83 1022.88,2757.48 1020.46,2747.75 1017.97,2737.47 1015.83,2728.97 1021.62,2727.77 1022.75,2732.69 1028.01,2754.26 1032.38,2753.58"/>
    <poly id="101494844" type="building" color="255,230,230" fill="0" layer="-1.00" shape="1177.65,2833.06 1178.28,2832.74"/>
    <poly id="101494846" type="building" color="255,230,230" fill="1" layer="-1.00" shape="1258.53,2786.12 1266.33,2781.85 1267.40,2782.87 1265.11,2784.27 1265.78,2785.50 1259.79,2789.03 1259.56,2788.70 1258.22,2786.22 1258.53,2786.12"/>
    <poly id="101494847" type="building" color="255,230,230" fill="1" layer="-1.00" shape="1059.05,2784.88 1058.88,2768.31 1060.36,2768.34 1060.46,2777.24 1062.18,2777.17 1062.24,2784.73 1059.05,2784.88"/>
    <poly id="101494851" type="building" color="255,230,230" fill="1" layer="-1.00" shape="1164.95,2722.28 1179.64,2705.72 1194.15,2718.55 1206.86,2729.68 1201.59,2735.68 1201.98,2735.46 1202.29,2735.36 1202.61,2735.26 1203.15,2735.27 1203.70,2735.28 1204.08,2735.40 1204.54,2735.63 1205.23,2736.32 1205.53,2736.77 1205.67,2737.22 1205.74,2737.88 1205.72,2738.66 1205.55,2739.44 1205.01,2740.02 1204.59,2740.30 1203.73,2740.39 1202.96,2740.15 1202.51,2739.70 1202.21,2739.14 1202.15,2738.25 1202.24,2737.91 1200.86,2736.77 1192.47,2746.36 1164.95,2722.28"/>
    <poly id="101494853" type="building" color="255,230,230" fill="1" layer="-1.00" shape="1230.45,2813.37 1225.77,2815.89 1221.16,2818.38 1213.29,2805.20 1213.69,2804.98 1218.96,2802.22 1222.90,2800.08 1230.45,2813.37"/>