<?xml version="1.0" encoding="UTF-8"?>

<!-- generated on Mon May  2 18:03:20 2016 by SUMO duarouter Version 0.26.0
<?xml version="1.0" encoding="UTF-8"?>

<configuration xmlns:xsi="http://www.w3.org/2001/XMLSchema-instance" xsi:noNamespaceSchemaLocation="http://sumo.dlr.de/xsd/duarouterConfiguration.xsd">

    <input>
        <net-file value="testqgis.net.xml"/>
        <trip-files value="trips.trips.xml"/>
    </input>

    <output>
        <output-file value="testqgis.rou.xml"/>
    </output>

    <processing>
        <ignore-errors value="true"/>
    </processing>

    <time>
        <begin value="0"/>
        <end value="50.0"/>
    </time>

    <report>
        <no-warnings value="true"/>
        <no-step-log value="true"/>
    </report>

</configuration>
-->

<routes xmlns:xsi="http://www.w3.org/2001/XMLSchema-instance" xsi:noNamespaceSchemaLocation="http://sumo.dlr.de/xsd/routes_file.xsd">
<vType id="type1" accel="1.2" decel="3" sigma="0.5" length="1.6" maxSpeed="3.5"/>
    <vehicle id="0" type="type1" depart="0.00">
        <route edges="35016657#1 280834359 4298020 35018430#3 35018430#4 35018430#5 35018430#6 4328059#0 4328059#1 4328059#2 5086488 -5086487 4378849 4378795#0 4378795#1 101158693#0 101158693#1 101158693#2 101158693#3 101158693#4 101158696#0 4302244#0 240069023#0 239030504#2 239030504#3 166303690#2 4302244#4 240069025#0 240069025#1 240069025#2 -4302243#1 -4302243#0 -4302697 4378865#0 4378865#1 4378865#2 4378865#3 4378865#4 4378865#5 4378865#6 4378865#7 4378865#8 25102065 207572626 25102066#0 25102066#1 25102105#0 25102105#1 25102105#2 25102105#3 4378903#0 4378903#1 8682982#0 8682982#1 8682982#2 8682982#3 8682982#4 8682982#5 8682982#6 8682982#7 8682982#8 188627873#0 188627873#1 141105311#0 141105311#1 16907777#0 16907777#1 276547249#0 276547249#1 276547249#2 4381840 70765869 4255585#0 89961186 254876720#0 254876720#1 4378898 276814444 267392160#3 267392160#4 267392160#5 -4303402 4325177#0 4325177#1 4325177#2 4306139#1 4306139#2"/>
    </vehicle>
    <vehicle id="1" type="type1" depart="1.00">
        <route edges="5120894#0 5120894#1 5120894#2 5120894#3 5120894#4 5120894#5 5120891#0 5120891#1 5120893#2 5120893#3 5120893#4 5120893#5 5120893#6 5120964#0 5120964#1 5120966#2 5120969#0 5120969#1 242770972#0 242770972#1 5120970#0 5120970#1 5120970#2 5120970#3 23487043#0 23487043#1 23487043#2 23487043#3 23487043#4 258365185#0 258365185#1 205871924#15 5852326#0 5852326#1 5120998#0 186795011"/>
    </vehicle>
    <vehicle id="3" type="type1" depart="3.00">
        <route edges="-62058583 -215062016 -242770498#2 133744380 -4378920 -112242196#1 -112242196#0 4378862#0 5837944#0 5837944#1 4378829#2 4378829#3 111573652#0 111573652#1 111573652#2 111573652#3 111573652#4 4378918#1 25101260#1"/>
    </vehicle>
    <vehicle id="7" type="type1" depart="7.00">
        <route edges="-282595009#0 219135701 289702140 22768121#6 22768121#7 22768121#8 24457041#0 24457041#1 24457041#2 24457041#3 186742300#0 186742300#1 186742300#2 186742300#3 186742300#4 186742300#5 186742300#6 186742300#7 186742300#8 186742300#9 186742300#10 186742300#11 186742300#12 186742300#13 186742300#14 186742300#15 186742300#16 213705678#0 213705678#1 213705678#2 213705678#3 213705676#0 213705676#1 213705676#2 213705676#3 4266582#0 4266582#1 211418700 211418722#0 211418722#1 211418720 211418701 211418704 4252143 52067463 211418709 208006006#0"/>
    </vehicle>
    <vehicle id="8" type="type1" depart="8.00">
        <route edges="-62058583 -215062016 -242770498#2 133744380 -4378920 112242196#2 4378870#0 4378870#1 4378870#2 4378870#3 4378839 5120996#0 5120996#1 4378853#0 4378853#1 4378853#2 4378853#3 4378853#4 -242802321#1 -242802321#0 -242802317 -4302250 10944272#0 10944272#1 10944272#2 10944272#3 4429563#0 4429563#1 4429563#2 4429563#3 4429563#4 4429563#5 4429563#6 4429563#7 4429563#8 23308743#0 23308743#1"/>
    </vehicle>
    <vehicle id="10" type="type1" depart="10.00">
        <route edges="-62058583 -215062016 -242770498#2 137116447#0 137116447#1 4378806#2 4378827#1 4378827#2 4347679 188627873#0 188627873#1 141105311#0 141105311#1 4266677 242737760 173118331#0 173118331#1 22768122#2 22768122#3 22768121#0 22768121#1 22768121#2 22768121#3 22768121#4 22768121#5 22768121#6 22768121#7 22768121#8 24490230 282595009#0 -282595009#0"/>
    </vehicle>
    <vehicle id="11" type="type1" depart="11.00">
        <route edges="-137111482#3 -137111482#2 -137111482#1 -137111482#0 23406936#0 23406936#1 22516044#0 22516044#1 22516044#2 -5238769#5 -5238769#4 -5238769#3 -5238769#2 -5238769#1 -5238769#0 -23319988#4 -23319988#3 5237769#0 5237769#1 5237769#2 23441461 5120901 5983099"/>
    </vehicle>
    <vehicle id="12" type="type1" depart="12.00">
        <route edges="25101260#1 25101260#2 5852322 5852325 4302694#0 4302694#1 334305054 39119507#0 4302697 4302243#0 4302243#1 4302245#0 4302245#1 4302245#2 4302245#3 4302245#4 4302249#0 4302249#1 4302249#2 4302249#3 4302249#4 10944272#0 10944272#1 10944272#2 10944272#3 4429563#0 4429563#1 4429563#2 4429563#3 4429563#4 4429563#5 4429563#6 4429563#7 4429563#8 23308743#0 23308743#1"/>
    </vehicle>
    <vehicle id="13" type="type1" depart="13.00">
        <route edges="5120894#0 5120894#1 5120894#2 5120894#3 5120894#4 5120894#5 5120894#6 5120863 -5120861#1 -5120861#0 5984579#0 5984579#1 23317855#3 261470314 261470307 261470306 141105312#0 141105312#1 141105312#2 16907867#0 16907867#1 16907867#2 16907867#3 141105310#0 141105310#1 188627874#0 188627874#1 188627874#2 188627874#3 188627874#4 188627874#5 188627874#6 188627874#7 188627874#8 4360394#0 4360394#1 4360394#2 4360394#3 4360394#4 4360394#5 4360394#6 4360394#7 188726314 188726313 188726316#0 188726316#1 4360397#0 4360397#1 -4193291 23128195 133405621 23128193#0 23128193#1 269173305 207572286#0 207572286#1 207572286#2 207572286#3 207572286#4 207572286#5 207572286#6 207572286#7 207572286#8 207572286#9 4170811#0 4170811#1 4170811#2 4170811#3 4170811#4 4170811#5 4170811#6 4170811#7 4170811#8 4170811#9 4170811#10 4170811#11 -379931458#1 -379931458#0 4378789#0 4378789#1 4378789#2 4378789#3 4378789#4"/>
    </vehicle>
    <vehicle id="15" type="type1" depart="15.00">
        <route edges="208006006#0 208006006#1 212037077#0 212037077#1 212037077#2 212037077#3 208005999#0 208005999#1 208005999#2 208005999#3 210438334#2 210438334#3 210438334#4 210438334#5 210438334#6 -157518929#1 -157518929#0 4274835#0 4274835#1 4274835#2 4274835#3 4274835#4 4274835#5 4274835#6 4274835#7 4274835#8 4274835#9 4274835#10 4274835#11 4274835#12 4274835#13 4274835#14 4274835#15 4274835#16 4274835#17 361382076 207202377 136977296 207002362#0 207002362#1 207002362#2 138536243#0 138536243#1 138536243#2 138536243#3 138536243#4 138536243#5 138536243#6 138536243#7 138536243#8 4306143#0 4306143#1 4306143#2 4306143#3 4306143#4 4306143#5 4306143#6 4306143#7 4306143#8 267392160#0 267392160#1 267392160#2 267392160#3 267392160#4 267392160#5 -4303402 4325177#0 4325177#1 4325177#2 4306139#1 4306139#2"/>
    </vehicle>
    <vehicle id="16" type="type1" depart="16.00">
        <route edges="208006006#0 208006006#1 59153652#2 59153652#3 4325171#0 4325171#1 4325171#2 211418696#2 211418696#3 211418696#4 -4268526#2 -4268526#1 -4268526#0 69170615 305533350#0 305533350#1 76848613#2 4360391#0 4360391#1 92194788 92194787#0 92194787#1 92194787#2 4360390#0 4360390#1 4360390#2 207002363#0 207002363#1 207002363#2 207002363#3 207002363#4 207002363#5 207002363#6 207002363#7 207002363#8 207002363#9 8682982#0 8682982#1 8682982#2 8682982#3 8682982#4 8682982#5 8682982#6 8682982#7 8682982#8 188627873#0 188627873#1 141105311#0 141105311#1 16907777#0 4347680#0 73207866 199258035 -5984471#1 -5984471#0 5984556 73207863 5120861#0 5120861#1 -5120863 5120888#0 5120888#1 5120888#2 5120888#3 5120888#4 -115981132 22372862#0 22372862#1 22372862#2 22372862#3 5120902 5983089 5983014#0 5983014#1 5983105 5983028#0 5982997 22516088 22516106#0 22516106#1 23440342 5983036#2 -23319988#4 -23319988#3 5237769#0 5237769#1 5237769#2 23441461 5120901 5983099"/>
    </vehicle>
    <vehicle id="17" type="type1" depart="17.00">
        <route edges="88660239#3 88660239#4 76848607#1 76848607#2 76848607#3 76848607#4 76848607#5 5134853#1 5134853#2 269173317#0 269173317#1 269173315 133408462#0 133408462#1 133408462#2 4109571 82263769 249945788 280277426 101158693#0 101158693#1 101158693#2 101158693#3 101158693#4 101158696#0 4302244#0 240069023#0 239030504#2 239030504#3 166303690#2 166303690#3 101158696#4 101158696#5 101158696#6 101158696#7 101158696#8 101158696#9 101158696#10 101158696#11 4302249#0 4302249#1 4302249#2 4302249#3 4302249#4 10944272#0 10944272#1 10944272#2 10944272#3 4429563#0 4429563#1 4429563#2 4429563#3 4429563#4 4429563#5 4429563#6 4429563#7 4429563#8 23308743#0 23308743#1"/>
    </vehicle>
    <vehicle id="19" type="type1" depart="19.00">
        <route edges="-62058583 -215062016 -242770498#2 137116447#0 137116447#1 4378806#2 4378827#1 4378827#2 188627874#0 188627874#1 188627874#2 188627874#3 188627874#4 188627874#5 188627874#6 188627874#7 188627874#8 4360394#0 4360394#1 4360394#2 4360394#3 4360394#4 4360394#5 4360394#6 4360394#7 188726314 188726313 188726316#0 188726316#1 207001173 18203573 18203576 92194793 92194792#0 92194792#1 80652982 123331973#0 123331973#1 123331973#2 123331973#3 123331973#4 123331973#5 123331973#6 123331973#7 123331973#8 4222981#0 4222981#1 88660239#1 88660239#2 88660239#3"/>
    </vehicle>
    <vehicle id="21" type="type1" depart="21.00">
        <route edges="4306139#2 4306139#3 4306139#4 266867427#0 266867427#1 266129367 -267392160#0 -4306143#8 -4306143#7 -4306143#6 -4306143#5 -4306143#4 -4306143#3 -4306143#2 113485483#4 4306165#0 4306165#1 4306165#2 22768122#0 22768122#1 -173118331#1 -173118331#0 -242737760 -4266677 16907777#0 4347680#0 4347680#1 141105312#1 141105312#2 16907867#0 16907867#1 16907867#2 16907867#3 141105310#0 141105310#1 188627874#0 188627874#1 188627874#2 188627874#3 4378841#0 4378841#1 4378841#2 62064242#0 62064242#1 62064242#2 62064242#3 258175290 258128928#22 258128928#23 258128928#24 258128928#25 258128928#26 112242196#0 112242196#1 112242196#2 -62058583"/>
    </vehicle>
    <vehicle id="22" type="type1" depart="22.00">
        <route edges="25101260#1 25101260#2 5852322 5852325 4302694#0 4302694#1 334305054 39119507#0 4378865#0 4378865#1 4378865#2 4378865#3 4378865#4 4378865#5 4378865#6 4378865#7 4378865#8 25102065 207572626 25102066#0 25102066#1 25102105#0 25102105#1 25102105#2 25102105#3 4360394#0 4360394#1 4360394#2 4360394#3 4360394#4 4360394#5 4360394#6 4360394#7 188726314 188726313 188726316#0 188726316#1 4360397#0 4360397#1 -4193291 23128195 133405621 23128193#0 23128193#1 269173305 4266582#0 4266582#1 211418700 211418722#0 211418722#1 211418720 211418701 211418704 4252143 52067463 211418709 208006006#0"/>
    </vehicle>
    <vehicle id="23" type="type1" depart="23.00">
        <route edges="237271384#0 4378890#0 208005999#1 208005999#2 208005999#3 210438334#2 210438334#3 210438334#4 210438334#5 210438334#6 157518929#2 157518929#3 157518929#4 157518929#5 157518929#6 157518929#7 157518929#8 157518929#9 4274858#0 4274858#1 4274858#2 4274858#3 4274858#4 4274858#5 4274858#6 -5073287#9 -5073287#8 -5073287#7 -5073287#6 -5073287#5 -5073287#4 -5073287#3 -5073287#2 -5073287#1 -5073287#0 213705678#0 213705678#1 213705678#2 213705678#3 5073288#0 5073288#1 133818200#0 133818200#1 133023215"/>
    </vehicle>
    <vehicle id="24" type="type1" depart="24.00">
        <route edges="-137111482#3 -137111482#2 23440571#0 -128963925#8 -128963925#7 -128963925#6 -128963925#5 -128963925#4 -128963925#3 -128963925#2 -128963925#1 -128963925#0 298203895#6 188630315 22768010 70765868 261470314 261470307 261470306 141105312#0 141105312#1 141105312#2 16907867#0 16907867#1 16907867#2 16907867#3 141105310#0 141105310#1 188627874#0 188627874#1 188627874#2 188627874#3 4378841#0 4378841#1 4378841#2 62064242#0 62064242#1 62064242#2 62064242#3 258175290 258128928#22 4378829#0 4378829#1 4378829#2 4378829#3 111573652#0 4378874#0 4378876#0 4378876#1 5852322 5852325 4302694#0 4302694#1 334305054 39119507#0 39119507#1 39119507#2 39119507#3 39119507#4 39119507#5 258145931#0 258145931#1 258145931#2 258145931#3 258145931#4 258145931#5 258145931#6 88675303 242800824 249945788 280277426 4378802#0 4378802#1 4378849 35018431 219642513 276388553#0 -5182786#1 -5182786#0 -5182784 276392195#0 276392195#1 276392195#2 276392195#3 35016657#0 35016657#1"/>
    </vehicle>
    <vehicle id="27" type="type1" depart="27.00">
        <route edges="4255533#5"/>
    </vehicle>
    <vehicle id="29" type="type1" depart="29.00">
        <route edges="-62058583 -215062016 -242770498#2 137116447#0 137116447#1 4378806#2 4378827#1 4378827#2 188627874#0 188627874#1 188627874#2 188627874#3 188627874#4 188627874#5 188627874#6 188627874#7 188627874#8 4360394#0 4360394#1 4360394#2 4360394#3 4360394#4 4360394#5 4360394#6 4360394#7 188726314 188726313 188726316#0 188726316#1 4360397#0 4360397#1 -4193291 23128195 133405621 23128193#0 23128193#1 269173305 207572286#0 207572286#1 207572286#2 207572286#3 207572286#4 207572286#5 207572286#6 207572286#7 207572286#8 207572286#9 4170811#0 4170811#1 4170811#2 4170811#3 4170811#4 4170811#5 4170811#6 4170811#7 4170811#8 4170811#9 4325176#0 65092502#4 237271384#0"/>
    </vehicle>
    <vehicle id="30" type="type1" depart="30.00">
        <route edges="-282595009#0 219135701 289702140 22768121#6 22768121#7 282595014#1 -173768216 -189381337 -173768221#2 -173768221#1 8682982#1 8682982#2 8682982#3 8682982#4 8682982#5 8682982#6 8682982#7 8682982#8 188627873#0 188627873#1 141105311#0 141105311#1 16907777#0 4347680#0 73207866 199258035 -5984471#1 -5984471#0 5984556 73207863 5120861#0 5120861#1 5120862 5120893#0 5120893#1 5120893#2 5120893#3 5120893#4 5120893#5 5120893#6 5120964#0 5120924 5120894#0"/>
    </vehicle>
    <vehicle id="33" type="type1" depart="33.00">
        <route edges="186795011 4378853#2 4378853#3 4378853#4 23308644 108373168#0 108373168#1 108373168#2 -4378839 -4378870#3 -4378870#2 -4378870#1 -4378870#0 -62058583"/>
    </vehicle>
    <vehicle id="34" type="type1" depart="34.00">
        <route edges="5120894#0 5120894#1 5120894#2 5120894#3 5120894#4 5120894#5 5120891#0 5120891#1 5120893#2 5120893#3 5120893#4 5120893#5 5120893#6 5120964#0 5120964#1 5120966#2 5120969#0 5120969#1 242770972#0 242770972#1 5120970#0 5120970#1 5120970#2 5120970#3 23487043#0 23487043#1 23487043#2 23487043#3 23487043#4 258365185#0 258365185#1 205871924#15 5852326#0 5852326#1 5120998#0 186795011"/>
    </vehicle>
    <vehicle id="35" type="type1" depart="35.00">
        <route edges="5983099 -5983014#0 5983087#0 5983087#1 5983087#2 5983087#3 -115981135#0 115981134#0 115981134#1 115981134#2 115981134#3 115981132 -5120888#4 -5120888#3 -5120888#2 -5120888#1 -5120888#0 5120863 -5120861#1 -5120861#0 5984579#0 5984579#1 23317855#3 261470314 261470307 261470306 141105312#0 141105312#1 141105312#2 16907867#0 16907867#1 16907867#2 16907867#3 141105310#0 141105310#1 188627874#0 188627874#1 188627874#2 188627874#3 188627874#4 188627874#5 188627874#6 188627874#7 188627874#8 4360394#0 4360394#1 4360394#2 4360394#3 4360394#4 4360394#5 4360394#6 4360394#7 188726314 188726313 188726316#0 188726316#1 4360397#0 4360397#1 -4193291 23128195 133405621 23128193#0 23128193#1 269173305 4266582#0 4266582#1 211418700 211418722#0 211418722#1 211418720 211418701 211418704 4252143 52067463 211418709 208006006#0"/>
    </vehicle>
    <vehicle id="36" type="type1" depart="36.00">
        <route edges="-62058583 -215062016 -242770498#2 137116447#0 137116447#1 4378806#2 4378827#1 4378827#2 188627874#0 188627874#1 188627874#2 188627874#3 188627874#4 188627874#5 188627874#6 188627874#7 188627874#8 4360394#0 4360394#1 4360394#2 4360394#3 4360394#4 4360394#5 4360394#6 4360394#7 188726314 188726313 188726316#0 188726316#1 4360397#0 4360397#1 -4193291 23128195 133405621 23128193#0 23128193#1 269173305 207572286#0 207572286#1 207572286#2 207572286#3 207572286#4 207572286#5 207572286#6 207572286#7 207572286#8 207572286#9 4170811#0 4170811#1 4170811#2 4170811#3 4170811#4 4170811#5 4170811#6 4170811#7 4170811#8 4170811#9 4170811#10 4170811#11 -379931458#1 -379931458#0 4378789#0 4378789#1 4378789#2 4378789#3 4378789#4"/>
    </vehicle>
    <vehicle id="40" type="type1" depart="40.00">
        <route edges="35016657#1 280834359 4298020 35018430#3 35018430#4 35018430#5 35018430#6 4328059#0 4328059#1 4328059#2 5086488 -5086487 4378849 4378795#0 4378795#1 101158693#0 101158693#1 101158693#2 101158693#3 101158693#4 101158696#0 4302244#0 240069023#0 239030504#2 239030504#3 166303690#2 166303690#3 101158696#4 101158696#5 101158696#6 101158696#7 101158696#8 101158696#9 101158696#10 101158696#11 4302249#0 4302249#1 4302249#2 4302249#3 4302249#4 4302250 242802317 242802321#0 242802321#1 23308644 108373168#0 108373168#1 108373168#2 -4378839 5117447#0 5117447#1 5120974#0 5120974#1 5117445 5120849#1 5120849#2 5117446#0 5117446#1 5120893#4 5120893#5 5120893#6 5120964#0 5120924 5120894#0"/>
    </vehicle>
    <vehicle id="43" type="type1" depart="43.00">
        <route edges="5120894#0 5120894#1 5120894#2 5120894#3 5120894#4 5120894#5 5120894#6 5120863 -5120861#1 -5120861#0 5984579#0 5984579#1 23317855#3 261470314 261470307 261470306 141105312#0 141105312#1 141105312#2 16907867#0 16907867#1 16907867#2 219142036 141105311#0 141105311#1 4266677 242737760 173118331#0 173118331#1 22768122#2 22768122#3 22768121#0 22768121#1 22768121#2 22768121#3 22768121#4 22768121#5 22768121#6 22768121#7 22768121#8 24490230 282595009#0 -282595009#0"/>
    </vehicle>
    <vehicle id="44" type="type1" depart="44.00">
        <route edges="5120894#0 5120894#1 5120894#2 5120894#3 5120894#4 5120894#5 5120894#6 5120863 -5120861#1 -5120861#0 5984579#0 5984579#1 23317855#3 261470314 261470307 261470306 141105312#0 141105312#1 141105312#2 16907867#0 16907867#1 16907867#2 16907867#3 141105310#0 141105310#1 188627874#0 188627874#1 188627874#2 188627874#3 188627874#4 188627874#5 188627874#6 188627874#7 188627874#8 4360394#0 4360394#1 4360394#2 4360394#3 4360394#4 4360394#5 4360394#6 4360394#7 188726314 188726313 188726316#0 188726316#1 4360397#0 4360397#1 -4193291 23128195 133405621 23128193#0 23128193#1 269173305 207572286#0 207572286#1 207572286#2 207572286#3 207572286#4 207572286#5 207572286#6 207572286#7 207572286#8 207572286#9 4170811#0 4170811#1 4170811#2 4170811#3 4170811#4 4170811#5 4170811#6 4170811#7 4170811#8 4170811#9 4325176#0 65092502#4 237271384#0"/>
    </vehicle>
    <vehicle id="48" type="type1" depart="48.00">
        <route edges="208006006#0 208006006#1 59153652#2 59153652#3 4325171#0 4325171#1 4325171#2 211418696#2 211418696#3 211418696#4 -4268526#2 -4268526#1 -4268526#0 69170615 305533350#0 305533350#1 76848613#2 4360391#0 4360391#1 92194788 92194787#0 92194787#1 92194787#2 4360390#0 4360390#1 4360390#2 207002363#0 207002363#1 207002363#2 207002363#3 207002363#4 207002363#5 207002363#6 207002363#7 207002363#8 207002363#9 8682982#0 8682982#1 8682982#2 8682982#3 8682982#4 8682982#5 8682982#6 8682982#7 8682982#8 188627873#0 188627873#1 141105311#0 141105311#1 16907777#0 4347680#0 73207866 199258035 -5984471#1 -5984471#0 5984556 73207863 5120861#0 5120861#1 5120862 5120893#0 5120893#1 5120893#2 5120893#3 5120893#4 5120893#5 5120893#6 5120964#0 5120924 5120894#0"/>
    </vehicle>
</routes>
